LAMMPS (8 Feb 2023)
variable        NSTEPS          equal 1000
variable        THERMO_FREQ     equal 10
variable        DUMP_FREQ       equal 10
variable        restart         equal 0
variable        TEMP            equal 800.000000
variable        TAU_T           equal 0.100000

units           metal
boundary        p p p
atom_style      atomic

neighbor        1.0 bin
neigh_modify    delay 10

box              tilt large

The 'box' command has been removed and will be ignored

read_data lmp.config
Reading data file ...
  triclinic box = (0 0 0) to (11.133777 11.223192 10.992594) with tilt (-0.21577784 0.053801181 -0.058671845)
  reading atoms ...
  64 atoms
change_box       all triclinic
Changing box ...
  triclinic box = (0 0 0) to (11.133777 11.223192 10.992594) with tilt (-0.21577784 0.053801181 -0.058671845)
pair_style   pwmlff   4 0_torch_script_module.pt 1_torch_script_module.pt 2_torch_script_module.pt 3_torch_script_module.pt  out_freq 10 out_file model_devi.out
<---- Loading model ----><---- Load model successful!!! ---->pair_coeff       * * 14

thermo_style    custom step temp pe ke etotal press vol lx ly lz xy xz yz
thermo          10
dump            1 all custom 10 traj/*.lammpstrj id type x y z fx fy fz
restart         10000 lmps.restart

velocity        all create 800 18998
fix             1 all nvt temp 800 800 0.1

timestep        0.002000
run             1000 upto
Generated 0 of 0 mixed pair_coeff terms from geometric mixing rule
Step          Temp          PotEng         KinEng         TotEng         Press          Volume           Lx             Ly             Lz             Xy             Xz             Yz
0   800           -2180.5861      6.5147113     -2174.0714     -6006.3824      1373.5962      11.133777      11.223192      10.992594     -0.21577784     0.053801181   -0.058671845
Averages over the last 51 of 101 rows, steps 500 to 1000:
Temp PotEng KinEng TotEng Press Volume Lx Ly Lz Xy Xz Yz
806.204 -2174.37 6.56524 -2167.81 6185.64 1373.6 11.1338 11.2232 10.9926 -0.215778 0.0538012 -0.0586718
Loop time of 72.2219 on 1 procs for 1000 steps with 64 atoms
